modela sistema eletrico/bdgd_to_opendss/cenario_2/001001/run.dss
New Object = Circuit.001001_Barra_Slack
~ basekv = 13.8 pu = 1.029 angle = 0
New line.001001001001 phases = 3 bus1 = SourceBus bus2 = 59904014827576618MT.1.2.3 switch = y

New linecode.16512328H-3_linecode_media nphases=3 BaseFreq=60
~ r1=0.000306
~ x1=0.00038500000000000003
~ c1=0
~ Normamps=365.0
~ Emergamps=511.0

New linecode.16512329H-3_linecode_media nphases=3 BaseFreq=60
~ r1=0.000975
~ x1=0.000347
~ c1=0
~ Normamps=175.0
~ Emergamps=245.0

New linecode.16512329H-3P_linecode_media nphases=3 BaseFreq=60
~ r1=0.000975
~ x1=0.000347
~ c1=0
~ Normamps=175.0
~ Emergamps=245.0

New linecode.16512375H-3_linecode_media nphases=3 BaseFreq=60
~ r1=0.000195
~ x1=0.00029099999999999997
~ c1=0
~ Normamps=495.0
~ Emergamps=693.0

New linecode.45225705C-3_linecode_media nphases=3 BaseFreq=60
~ r1=0.000732
~ x1=0.000303
~ c1=0
~ Normamps=184.0
~ Emergamps=258.0

New linecode.5281622H-3_linecode_media nphases=3 BaseFreq=60
~ r1=0.00131
~ x1=0.00041
~ c1=0
~ Normamps=68.0
~ Emergamps=68.0

New linecode.5281622H-3P_linecode_media nphases=3 BaseFreq=60
~ r1=0.00131
~ x1=0.00041
~ c1=0
~ Normamps=68.0
~ Emergamps=68.0

New linecode.5281627C-3_linecode_media nphases=3 BaseFreq=60
~ r1=0.000992
~ x1=0.00011700000000000001
~ c1=0
~ Normamps=70.0
~ Emergamps=70.0

New linecode.5281627C-3P_linecode_media nphases=3 BaseFreq=60
~ r1=0.000992
~ x1=0.00011700000000000001
~ c1=0
~ Normamps=70.0
~ Emergamps=70.0

New linecode.5281628C-3_linecode_media nphases=3 BaseFreq=60
~ r1=0.000247
~ x1=0.000259
~ c1=0
~ Normamps=291.0
~ Emergamps=291.0

New linecode.5281631C-3_linecode_media nphases=3 BaseFreq=60
~ r1=0.000739
~ x1=0.000303
~ c1=0
~ Normamps=152.0
~ Emergamps=181.0

New linecode.5281631C-3P_linecode_media nphases=3 BaseFreq=60
~ r1=0.000739
~ x1=0.000303
~ c1=0
~ Normamps=152.0
~ Emergamps=181.0

New linecode.5281632C-3_linecode_media nphases=3 BaseFreq=60
~ r1=0.00019700000000000002
~ x1=0.000251
~ c1=0
~ Normamps=368.0
~ Emergamps=400.0

New Capacitor.1236705_Banco_de_Capacitor Bus1 = 0011236687.1.2.3 kv = 13.800 kVAR = 14 phases = 3 conn = wye

New Capacitor.1236732_Banco_de_Capacitor Bus1 = 0011236715.1.2.3 kv = 13.800 kVAR = 14 phases = 3 conn = wye

New Capacitor.1236761_Banco_de_Capacitor Bus1 = 0011236743.1.2.3 kv = 13.800 kVAR = 14 phases = 3 conn = wye

New Capacitor.1236791_Banco_de_Capacitor Bus1 = 0011236774.1.2.3 kv = 13.800 kVAR = 14 phases = 3 conn = wye

New Capacitor.1236890_Banco_de_Capacitor Bus1 = 0011236822.1.2.3 kv = 13.800 kVAR = 14 phases = 3 conn = wye

New Capacitor.1236893_Banco_de_Capacitor Bus1 = 0011236836.1.2.3 kv = 13.800 kVAR = 14 phases = 3 conn = wye

New Capacitor.1236897_Banco_de_Capacitor Bus1 = 0011236850.1.2.3 kv = 13.800 kVAR = 14 phases = 3 conn = wye

New Capacitor.1236900_Banco_de_Capacitor Bus1 = 0011236864.1.2.3 kv = 13.800 kVAR = 14 phases = 3 conn = wye

New Capacitor.34559532_Banco_de_Capacitor Bus1 = 59818346827373370MT.1.2.3 kv = 13.800 kVAR = 17 phases = 3 conn = wye

New line.1207330_Chave_seccionadora_media_tensao phases = 3 bus1 = 0011207322.1.2.3 bus2 = 0011207330.1.2.3 switch = F

New line.1207338_Chave_seccionadora_media_tensao phases = 3 bus1 = 0011207330.1.2.3 bus2 = 59904014827576618MT.1.2.3 switch = F

New line.5329885_Chave_seccionadora_media_tensao phases = 3 bus1 = 0014431411.1.2.3 bus2 = 0015329885.1.2.3 switch = F

New line.1207322_Chave_seccionadora_media_tensao phases = 3 bus1 = 0015329860.1.2.3 bus2 = 0011207322.1.2.3 switch = F

New line.5329860_Chave_seccionadora_media_tensao phases = 3 bus1 = 0015329872.1.2.3 bus2 = 0015329860.1.2.3 switch = F

New line.5329872_Chave_seccionadora_media_tensao phases = 3 bus1 = 0015329885.1.2.3 bus2 = 0015329872.1.2.3 switch = F

New line.64751677_Chave_seccionadora_media_tensao phases = 3 bus1 = 59802244827366428MT.1.2.3 bus2 = 59802215827366613MT.1.2.3 switch = A

New line.64751595_Chave_seccionadora_media_tensao phases = 3 bus1 = 59802405827366374MT.1.2.3 bus2 = 59802438827366411MT.1.2.3 switch = A

New line.64751691_Chave_seccionadora_media_tensao phases = 3 bus1 = 59802468827366680MT.1.2.3 bus2 = 59802529827366543MT.1.2.3 switch = F

New line.34582369CT_Chave_seccionadora_media_tensao phases = 3 bus1 = 59806782827412746MT.1.2.3 bus2 = 59806782827412746ET.1.2.3 switch = F

New line.34810741CT_Chave_seccionadora_media_tensao phases = 3 bus1 = 59810971827376595MT.1.2.3 bus2 = 59810971827376595ET.1.2.3 switch = F

New line.34670005CT_Chave_seccionadora_media_tensao phases = 3 bus1 = 59812242827401982MT.1.2.3 bus2 = 59812242827401982ET.1.2.3 switch = F

New line.64751679_Chave_seccionadora_media_tensao phases = 3 bus1 = 59813005827378968MT.1.2.3 bus2 = 59812907827378854MT.1.2.3 switch = F

New line.64751685_Chave_seccionadora_media_tensao phases = 3 bus1 = 59816303827375831MT.1.2.3 bus2 = 59816452827375817MT.1.2.3 switch = F

New line.64751594_Chave_seccionadora_media_tensao phases = 3 bus1 = 59816452827375817MT.1.2.3 bus2 = 59816563827375655MT.1.2.3 switch = F

New line.64751686_Chave_seccionadora_media_tensao phases = 3 bus1 = 59816563827375655MT.1.2.3 bus2 = 59816584827375568MT.1.2.3 switch = F

New line.64751673_Chave_seccionadora_media_tensao phases = 3 bus1 = 59816721827376234MT.1.2.3 bus2 = 59816797827376105MT.1.2.3 switch = A

New line.34665109CT_Chave_seccionadora_media_tensao phases = 3 bus1 = 59816839827370835MT.1.2.3 bus2 = 59816839827370835ET.1.2.3 switch = F

New line.34700631CT_Chave_seccionadora_media_tensao phases = 3 bus1 = 59817165827402679MT.1.2.3 bus2 = 59817165827402679ET.1.2.3 switch = F

New line.64709882_Chave_seccionadora_media_tensao phases = 3 bus1 = 59817405827374681MT.1.2.3 bus2 = 59817324827374555MT.1.2.3 switch = F

New line.34736980CT_Chave_seccionadora_media_tensao phases = 3 bus1 = 59817684827436747MT.1.2.3 bus2 = 59817684827436747ET.1.2.3 switch = F

New line.34790629CT_Chave_seccionadora_media_tensao phases = 3 bus1 = 59818006827434500MT.1.2.3 bus2 = 59818006827434500ET.1.2.3 switch = F

New line.64751676_Chave_seccionadora_media_tensao phases = 3 bus1 = 59818654827452423MT.1.2.3 bus2 = 59818548827452529MT.1.2.3 switch = A

New line.64659095_Chave_seccionadora_media_tensao phases = 3 bus1 = 59818869827435613MT.1.2.3 bus2 = 59818777827435494MT.1.2.3 switch = F

New line.34703389CT_Chave_seccionadora_media_tensao phases = 3 bus1 = 59820143827387423MT.1.2.3 bus2 = 59820143827387423ET.1.2.3 switch = F

New line.64659094_Chave_seccionadora_media_tensao phases = 3 bus1 = 59820226827434369MT.1.2.3 bus2 = 59820321827434485MT.1.2.3 switch = F

New line.64751674_Chave_seccionadora_media_tensao phases = 3 bus1 = 59820247827356982MT.1.2.3 bus2 = 59820112827356912MT.1.2.3 switch = A

New line.64751592_Chave_seccionadora_media_tensao phases = 3 bus1 = 59820391827356704MT.1.2.3 bus2 = 59820266827356617MT.1.2.3 switch = A

New line.34702388CT_Chave_seccionadora_media_tensao phases = 3 bus1 = 59820413827410398MT.1.2.3 bus2 = 59820413827410398ET.1.2.3 switch = F

New line.64751687_Chave_seccionadora_media_tensao phases = 3 bus1 = 59820415827356895MT.1.2.3 bus2 = 59820396827356746MT.1.2.3 switch = F

New line.34680900CT_Chave_seccionadora_media_tensao phases = 3 bus1 = 59820953827435264MT.1.2.3 bus2 = 59820953827435264ET.1.2.3 switch = F

New line.64659093_Chave_seccionadora_media_tensao phases = 3 bus1 = 59821594827371891MT.1.2.3 bus2 = 59821677827372016MT.1.2.3 switch = F

New line.34708044CT_Chave_seccionadora_media_tensao phases = 3 bus1 = 59821662827450099MT.1.2.3 bus2 = 59821662827450099ET.1.2.3 switch = F

New line.64751690_Chave_seccionadora_media_tensao phases = 3 bus1 = 59822916827449003MT.1.2.3 bus2 = 59822840827448873MT.1.2.3 switch = F

New line.64709881_Chave_seccionadora_media_tensao phases = 3 bus1 = 59823298827431836MT.1.2.3 bus2 = 59823408827431938MT.1.2.3 switch = F

New line.34786271CT_Chave_seccionadora_media_tensao phases = 3 bus1 = 59823498827452473MT.1.2.3 bus2 = 59823498827452473ET.1.2.3 switch = F

New line.34802486CT_Chave_seccionadora_media_tensao phases = 3 bus1 = 59824409827375917MT.1.2.3 bus2 = 59824409827375917ET.1.2.3 switch = F

New line.34747387CT_Chave_seccionadora_media_tensao phases = 3 bus1 = 59824848827446671MT.1.2.3 bus2 = 59824848827446671ET.1.2.3 switch = F

New line.34710896CT_Chave_seccionadora_media_tensao phases = 3 bus1 = 59825059827360320MT.1.2.3 bus2 = 59825059827360320ET.1.2.3 switch = F

New line.64670650_Chave_seccionadora_media_tensao phases = 3 bus1 = 59825169827359492MT.1.2.3 bus2 = 59825149827359641MT.1.2.3 switch = F

New line.34681522CT_Chave_seccionadora_media_tensao phases = 3 bus1 = 59827116827363936MT.1.2.3 bus2 = 59827116827363936ET.1.2.3 switch = F

New line.34734408CT_Chave_seccionadora_media_tensao phases = 3 bus1 = 59827132827444835MT.1.2.3 bus2 = 59827132827444835ET.1.2.3 switch = F

New line.64689980_Chave_seccionadora_media_tensao phases = 3 bus1 = 59827235827397137MT.1.2.3 bus2 = 59827115827397227MT.1.2.3 switch = F

New line.34685509CT_Chave_seccionadora_media_tensao phases = 3 bus1 = 59828247827448172MT.1.2.3 bus2 = 59828247827448172ET.1.2.3 switch = F

New line.64751678_Chave_seccionadora_media_tensao phases = 3 bus1 = 59828903827443529MT.1.2.3 bus2 = 59828782827443618MT.1.2.3 switch = F

New line.88108639CT_Chave_seccionadora_media_tensao phases = 3 bus1 = 59829142827389691MT.1.2.3 bus2 = 59829142827389691ET.1.2.3 switch = F

New line.34608978CT_Chave_seccionadora_media_tensao phases = 3 bus1 = 59829706827442810MT.1.2.3 bus2 = 59829706827442810ET.1.2.3 switch = F

New line.34654363CT_Chave_seccionadora_media_tensao phases = 3 bus1 = 59829717827468095MT.1.2.3 bus2 = 59829717827468095ET.1.2.3 switch = F

New line.64689979_Chave_seccionadora_media_tensao phases = 3 bus1 = 59830114827399980MT.1.2.3 bus2 = 59830011827400089MT.1.2.3 switch = F

New line.64687649_Chave_seccionadora_media_tensao phases = 3 bus1 = 59830503827425372MT.1.2.3 bus2 = 59830606827425481MT.1.2.3 switch = F

New line.64689984_Chave_seccionadora_media_tensao phases = 3 bus1 = 59830509827446212MT.1.2.3 bus2 = 59830423827446335MT.1.2.3 switch = F

New line.64689982_Chave_seccionadora_media_tensao phases = 3 bus1 = 59830624827360861MT.1.2.3 bus2 = 59830754827360936MT.1.2.3 switch = F

New line.64689981_Chave_seccionadora_media_tensao phases = 3 bus1 = 59831129827394985MT.1.2.3 bus2 = 59831244827394889MT.1.2.3 switch = F

New line.34577113CT_Chave_seccionadora_media_tensao phases = 3 bus1 = 59831169827357397MT.1.2.3 bus2 = 59831169827357397ET.1.2.3 switch = F

New line.34724728CT_Chave_seccionadora_media_tensao phases = 3 bus1 = 59831430827441297MT.1.2.3 bus2 = 59831430827441297ET.1.2.3 switch = F

New line.64751689_Chave_seccionadora_media_tensao phases = 3 bus1 = 59831734827353647MT.1.2.3 bus2 = 59831854827353737MT.1.2.3 switch = F

New line.34685510CT_Chave_seccionadora_media_tensao phases = 3 bus1 = 59832692827443724MT.1.2.3 bus2 = 59832692827443724ET.1.2.3 switch = F

New line.34648645CT_Chave_seccionadora_media_tensao phases = 3 bus1 = 59832979827378654MT.1.2.3 bus2 = 59832979827378654ET.1.2.3 switch = F

New line.64705352_Chave_seccionadora_media_tensao phases = 3 bus1 = 59833767827351593MT.1.2.3 bus2 = 59833821827351453MT.1.2.3 switch = F

New line.64705350_Chave_seccionadora_media_tensao phases = 3 bus1 = 59833775827355332MT.1.2.3 bus2 = 59833906827355406MT.1.2.3 switch = F

New line.34755505CT_Chave_seccionadora_media_tensao phases = 3 bus1 = 59833972827375170MT.1.2.3 bus2 = 59833972827375170ET.1.2.3 switch = F

New line.64670648_Chave_seccionadora_media_tensao phases = 3 bus1 = 59834066827376352MT.1.2.3 bus2 = 59834054827376202MT.1.2.3 switch = F

New line.34573464CT_Chave_seccionadora_media_tensao phases = 3 bus1 = 59834100827350734MT.1.2.3 bus2 = 59834100827350734ET.1.2.3 switch = F

New line.34641747CT_Chave_seccionadora_media_tensao phases = 3 bus1 = 59834644827438399MT.1.2.3 bus2 = 59834644827438399ET.1.2.3 switch = F

New line.34627372CT_Chave_seccionadora_media_tensao phases = 3 bus1 = 59835216827403383MT.1.2.3 bus2 = 59835216827403383ET.1.2.3 switch = F

New line.64740223_Chave_seccionadora_media_tensao phases = 3 bus1 = 59835766827437178MT.1.2.3 bus2 = 59835699827437044MT.1.2.3 switch = F

New line.34703352CT_Chave_seccionadora_media_tensao phases = 3 bus1 = 59835798827462585MT.1.2.3 bus2 = 59835798827462585ET.1.2.3 switch = F

New line.93252836CT_Chave_seccionadora_media_tensao phases = 3 bus1 = 59836244827457304MT.1.2.3 bus2 = 59836244827457304ET.1.2.3 switch = F

New line.34640756CT_Chave_seccionadora_media_tensao phases = 3 bus1 = 59836440827378773MT.1.2.3 bus2 = 59836440827378773ET.1.2.3 switch = F

New line.34573975CT_Chave_seccionadora_media_tensao phases = 3 bus1 = 59837115827364440MT.1.2.3 bus2 = 59837115827364440ET.1.2.3 switch = F

New line.34768152CT_Chave_seccionadora_media_tensao phases = 3 bus1 = 59838070827388336MT.1.2.3 bus2 = 59838070827388336ET.1.2.3 switch = F

New line.64751682_Chave_seccionadora_media_tensao phases = 3 bus1 = 59838219827438793MT.1.2.3 bus2 = 59838105827438890MT.1.2.3 switch = F

New line.34714989CT_Chave_seccionadora_media_tensao phases = 3 bus1 = 59838844827340340MT.1.2.3 bus2 = 59838844827340340ET.1.2.3 switch = F

New line.64740225_Chave_seccionadora_media_tensao phases = 3 bus1 = 59839035827434346MT.1.2.3 bus2 = 59839025827434196MT.1.2.3 switch = F

New line.64705351_Chave_seccionadora_media_tensao phases = 3 bus1 = 59839902827355427MT.1.2.3 bus2 = 59839973827355295MT.1.2.3 switch = F

New line.64751683_Chave_seccionadora_media_tensao phases = 3 bus1 = 59840163827408549MT.1.2.3 bus2 = 59840060827408440MT.1.2.3 switch = F

New line.64706476_Chave_seccionadora_media_tensao phases = 3 bus1 = 59840901827383095MT.1.2.3 bus2 = 59841020827383003MT.1.2.3 switch = F

New line.64689978_Chave_seccionadora_media_tensao phases = 3 bus1 = 59841259827436169MT.1.2.3 bus2 = 59841371827436069MT.1.2.3 switch = F

New line.64751681_Chave_seccionadora_media_tensao phases = 3 bus1 = 59842648827438541MT.1.2.3 bus2 = 59842552827438426MT.1.2.3 switch = F

New line.34682106CT_Chave_seccionadora_media_tensao phases = 3 bus1 = 59843571827455543MT.1.2.3 bus2 = 59843571827455543ET.1.2.3 switch = F

New line.64687648_Chave_seccionadora_media_tensao phases = 3 bus1 = 59844987827360146MT.1.2.3 bus2 = 59845083827360031MT.1.2.3 switch = F

New line.64709804_Chave_seccionadora_media_tensao phases = 3 bus1 = 59845939827442113MT.1.2.3 bus2 = 59845816827442199MT.1.2.3 switch = F

New line.34651824CT_Chave_seccionadora_media_tensao phases = 3 bus1 = 59847124827471117MT.1.2.3 bus2 = 59847124827471117ET.1.2.3 switch = F

New line.34630189CT_Chave_seccionadora_media_tensao phases = 3 bus1 = 59847272827346484MT.1.2.3 bus2 = 59847272827346484ET.1.2.3 switch = F

New line.34709770CT_Chave_seccionadora_media_tensao phases = 3 bus1 = 59848268827460601MT.1.2.3 bus2 = 59848268827460601ET.1.2.3 switch = F

New line.64670651_Chave_seccionadora_media_tensao phases = 3 bus1 = 59848981827378982MT.1.2.3 bus2 = 59849087827378876MT.1.2.3 switch = F

New line.34733464CT_Chave_seccionadora_media_tensao phases = 3 bus1 = 59849662827378302MT.1.2.3 bus2 = 59849662827378302ET.1.2.3 switch = F

New line.34675556CT_Chave_seccionadora_media_tensao phases = 3 bus1 = 59850552827447112MT.1.2.3 bus2 = 59850552827447112ET.1.2.3 switch = F

New line.34632356CT_Chave_seccionadora_media_tensao phases = 3 bus1 = 59851888827351241MT.1.2.3 bus2 = 59851888827351241ET.1.2.3 switch = F

New line.64704362_Chave_seccionadora_media_tensao phases = 3 bus1 = 59851922827354912MT.1.2.3 bus2 = 59851775827354940MT.1.2.3 switch = F

New line.34691991CT_Chave_seccionadora_media_tensao phases = 3 bus1 = 59852609827449509MT.1.2.3 bus2 = 59852609827449509ET.1.2.3 switch = F

New line.34591502CT_Chave_seccionadora_media_tensao phases = 3 bus1 = 59853051827365553MT.1.2.3 bus2 = 59853051827365553ET.1.2.3 switch = F

New line.34703392CT_Chave_seccionadora_media_tensao phases = 3 bus1 = 59853141827322292MT.1.2.3 bus2 = 59853141827322292ET.1.2.3 switch = F

New line.34702387CT_Chave_seccionadora_media_tensao phases = 3 bus1 = 59853800827451179MT.1.2.3 bus2 = 59853800827451179ET.1.2.3 switch = F

New line.34670007CT_Chave_seccionadora_media_tensao phases = 3 bus1 = 59855007827330753MT.1.2.3 bus2 = 59855007827330753ET.1.2.3 switch = F

New line.34666478CT_Chave_seccionadora_media_tensao phases = 3 bus1 = 59855904827461832MT.1.2.3 bus2 = 59855904827461832ET.1.2.3 switch = F

New line.64689985_Chave_seccionadora_media_tensao phases = 3 bus1 = 59856473827453966MT.1.2.3 bus2 = 59856445827453819MT.1.2.3 switch = F

New line.34629109CT_Chave_seccionadora_media_tensao phases = 3 bus1 = 59856838827454281MT.1.2.3 bus2 = 59856838827454281ET.1.2.3 switch = F

New line.64689986_Chave_seccionadora_media_tensao phases = 3 bus1 = 59857275827454769MT.1.2.3 bus2 = 59857237827454914MT.1.2.3 switch = F

New line.34628497CT_Chave_seccionadora_media_tensao phases = 3 bus1 = 59859142827356250MT.1.2.3 bus2 = 59859142827356250ET.1.2.3 switch = F

New line.34634929CT_Chave_seccionadora_media_tensao phases = 3 bus1 = 59859678827445111MT.1.2.3 bus2 = 59859678827445111ET.1.2.3 switch = F

New line.64689983_Chave_seccionadora_media_tensao phases = 3 bus1 = 59859723827322565MT.1.2.3 bus2 = 59859607827322470MT.1.2.3 switch = F

New line.34675557CT_Chave_seccionadora_media_tensao phases = 3 bus1 = 59860027827457816MT.1.2.3 bus2 = 59860027827457816ET.1.2.3 switch = F

New line.34786270CT_Chave_seccionadora_media_tensao phases = 3 bus1 = 59860781827446299MT.1.2.3 bus2 = 59860781827446299ET.1.2.3 switch = F

New line.34780759CT_Chave_seccionadora_media_tensao phases = 3 bus1 = 59861220827488445MT.1.2.3 bus2 = 59861220827488445ET.1.2.3 switch = F

New line.34722445CT_Chave_seccionadora_media_tensao phases = 3 bus1 = 59862248827322652MT.1.2.3 bus2 = 59862248827322652ET.1.2.3 switch = F

New line.34613763CT_Chave_seccionadora_media_tensao phases = 3 bus1 = 59862698827305726MT.1.2.3 bus2 = 59862698827305726ET.1.2.3 switch = F

New line.34622628CT_Chave_seccionadora_media_tensao phases = 3 bus1 = 59863408827449116MT.1.2.3 bus2 = 59863408827449116ET.1.2.3 switch = F

New line.34609977CT_Chave_seccionadora_media_tensao phases = 3 bus1 = 59864800827329702MT.1.2.3 bus2 = 59864800827329702ET.1.2.3 switch = F

New line.34636847CT_Chave_seccionadora_media_tensao phases = 3 bus1 = 59865762827294149MT.1.2.3 bus2 = 59865762827294149ET.1.2.3 switch = F

New line.34774244CT_Chave_seccionadora_media_tensao phases = 3 bus1 = 59865920827476103MT.1.2.3 bus2 = 59865920827476103ET.1.2.3 switch = F

New line.34633969CT_Chave_seccionadora_media_tensao phases = 3 bus1 = 59866408827452735MT.1.2.3 bus2 = 59866408827452735ET.1.2.3 switch = F

New line.64751680_Chave_seccionadora_media_tensao phases = 3 bus1 = 59866599827461721MT.1.2.3 bus2 = 59866698827461609MT.1.2.3 switch = F

New line.34755152CT_Chave_seccionadora_media_tensao phases = 3 bus1 = 59866966827286978MT.1.2.3 bus2 = 59866966827286978ET.1.2.3 switch = F

New line.64709880_Chave_seccionadora_media_tensao phases = 3 bus1 = 59867737827465340MT.1.2.3 bus2 = 59867619827465432MT.1.2.3 switch = F

New line.64740226_Chave_seccionadora_media_tensao phases = 3 bus1 = 59868463827284110MT.1.2.3 bus2 = 59868582827284202MT.1.2.3 switch = F

New line.64659090_Chave_seccionadora_media_tensao phases = 3 bus1 = 59868624827295210MT.1.2.3 bus2 = 59868519827295317MT.1.2.3 switch = F

New line.34570130CT_Chave_seccionadora_media_tensao phases = 3 bus1 = 59869143827309778MT.1.2.3 bus2 = 59869143827309778ET.1.2.3 switch = F

New line.34801742CT_Chave_seccionadora_media_tensao phases = 3 bus1 = 59869874827458012MT.1.2.3 bus2 = 59869874827458012ET.1.2.3 switch = F

New line.34732115CT_Chave_seccionadora_media_tensao phases = 3 bus1 = 59871354827454820MT.1.2.3 bus2 = 59871354827454820ET.1.2.3 switch = F

New line.64689977_Chave_seccionadora_media_tensao phases = 3 bus1 = 59871786827467280MT.1.2.3 bus2 = 59871691827467396MT.1.2.3 switch = F

New line.34737790CT_Chave_seccionadora_media_tensao phases = 3 bus1 = 59874584827306092MT.1.2.3 bus2 = 59874584827306092ET.1.2.3 switch = F

New line.34770523CT_Chave_seccionadora_media_tensao phases = 3 bus1 = 59875009827318466MT.1.2.3 bus2 = 59875009827318466ET.1.2.3 switch = F

New line.64670652_Chave_seccionadora_media_tensao phases = 3 bus1 = 59877850827454244MT.1.2.3 bus2 = 59877974827454159MT.1.2.3 switch = F

New line.34611765CT_Chave_seccionadora_media_tensao phases = 3 bus1 = 59878986827453464MT.1.2.3 bus2 = 59878986827453464ET.1.2.3 switch = F

New line.34678710CT_Chave_seccionadora_media_tensao phases = 3 bus1 = 59879140827487897MT.1.2.3 bus2 = 59879140827487897ET.1.2.3 switch = F

New line.64702973_Chave_seccionadora_media_tensao phases = 3 bus1 = 59879888827308439MT.1.2.3 bus2 = 59879830827308577MT.1.2.3 switch = F

New line.64740222_Chave_seccionadora_media_tensao phases = 3 bus1 = 59880949827479168MT.1.2.3 bus2 = 59881098827479149MT.1.2.3 switch = F

New line.34651828CT_Chave_seccionadora_media_tensao phases = 3 bus1 = 59881167827319813MT.1.2.3 bus2 = 59881167827319813ET.1.2.3 switch = F

New line.34715142CT_Chave_seccionadora_media_tensao phases = 3 bus1 = 59881546827473576MT.1.2.3 bus2 = 59881546827473576ET.1.2.3 switch = F

New line.64702974_Chave_seccionadora_media_tensao phases = 3 bus1 = 59881617827470823MT.1.2.3 bus2 = 59881723827470717MT.1.2.3 switch = F

New line.34656591CT_Chave_seccionadora_media_tensao phases = 3 bus1 = 59882294827320030MT.1.2.3 bus2 = 59882294827320030ET.1.2.3 switch = F

New line.34656586CT_Chave_seccionadora_media_tensao phases = 3 bus1 = 59883846827539687MT.1.2.3 bus2 = 59883846827539687ET.1.2.3 switch = F

New line.34669303CT_Chave_seccionadora_media_tensao phases = 3 bus1 = 59884447827467982MT.1.2.3 bus2 = 59884447827467982ET.1.2.3 switch = F

New line.64679417_Chave_seccionadora_media_tensao phases = 3 bus1 = 59884881827475296MT.1.2.3 bus2 = 59884810827475428MT.1.2.3 switch = F

New line.64670649_Chave_seccionadora_media_tensao phases = 3 bus1 = 59885596827466696MT.1.2.3 bus2 = 59885738827466745MT.1.2.3 switch = F

New line.34790147CT_Chave_seccionadora_media_tensao phases = 3 bus1 = 59885633827476980MT.1.2.3 bus2 = 59885633827476980ET.1.2.3 switch = F

New line.64751672_Chave_seccionadora_media_tensao phases = 3 bus1 = 59886003827533655MT.1.2.3 bus2 = 59886302827533714MT.1.2.3 switch = A

New line.34660149CT_Chave_seccionadora_media_tensao phases = 3 bus1 = 59886166827312782MT.1.2.3 bus2 = 59886166827312782ET.1.2.3 switch = F

New line.34701103CT_Chave_seccionadora_media_tensao phases = 3 bus1 = 59886816827510034MT.1.2.3 bus2 = 59886816827510034ET.1.2.3 switch = F

New line.64659091_Chave_seccionadora_media_tensao phases = 3 bus1 = 59887031827308834MT.1.2.3 bus2 = 59887175827308791MT.1.2.3 switch = F

New line.34738068CT_Chave_seccionadora_media_tensao phases = 3 bus1 = 59887338827307570MT.1.2.3 bus2 = 59887338827307570ET.1.2.3 switch = F

New line.34669828CT_Chave_seccionadora_media_tensao phases = 3 bus1 = 59888308827478002MT.1.2.3 bus2 = 59888308827478002ET.1.2.3 switch = F

New line.64697769_Chave_seccionadora_media_tensao phases = 3 bus1 = 59889803827472568MT.1.2.3 bus2 = 59889912827472672MT.1.2.3 switch = F

New line.34723057CT_Chave_seccionadora_media_tensao phases = 3 bus1 = 59890397827472156MT.1.2.3 bus2 = 59890397827472156ET.1.2.3 switch = F

New line.34679627CT_Chave_seccionadora_media_tensao phases = 3 bus1 = 59890510827473242MT.1.2.3 bus2 = 59890510827473242ET.1.2.3 switch = F

New line.64740224_Chave_seccionadora_media_tensao phases = 3 bus1 = 59891696827471066MT.1.2.3 bus2 = 59891807827471167MT.1.2.3 switch = F

New line.64659092_Chave_seccionadora_media_tensao phases = 3 bus1 = 59891838827520504MT.1.2.3 bus2 = 59891782827520365MT.1.2.3 switch = F

New line.64751684_Chave_seccionadora_media_tensao phases = 3 bus1 = 59893250827516491MT.1.2.3 bus2 = 59893242827516341MT.1.2.3 switch = F

New line.34594702CT_Chave_seccionadora_media_tensao phases = 3 bus1 = 59894232827510736MT.1.2.3 bus2 = 59894232827510736ET.1.2.3 switch = F

New line.34621072CT_Chave_seccionadora_media_tensao phases = 3 bus1 = 59897598827483570MT.1.2.3 bus2 = 59897598827483570ET.1.2.3 switch = F

New line.64751688_Chave_seccionadora_media_tensao phases = 3 bus1 = 59899237827510258MT.1.2.3 bus2 = 59899267827510405MT.1.2.3 switch = F

New line.1207346_Chave_seccionadora_media_tensao phases = 3 bus1 = 59904014827576618MT.1.2.3 bus2 = 0011207346.1.2.3 switch = A

New line.64751692_Chave_seccionadora_media_tensao phases = 3 bus1 = 59905705827568463MT.1.2.3 bus2 = 59905702827568313MT.1.2.3 switch = F

New line.64751597_Chave_seccionadora_media_tensao phases = 3 bus1 = 59908602827568737MT.1.2.3 bus2 = 59908744827568785MT.1.2.3 switch = A

New Load.nome_001bbc748366ac4e85107279fdcbbd82db4fbc068e014e29472b6a7d8aeb55ae_curva_diaria_RES-Tipo1_curva_anual_0.62_0.51_0.64_0.59_0.55_0.34_0.46_0.93_0.96_1.37_1.01_1.03_carga_baixa Bus1=59842440827455724BT.1.2 Phases=2
~ Conn=wye Model=1 Kv=0.22 Kw=1 pf=0.92

New Load.nome_005063e8fbef221135084812f2734a89489b7a52591bfc92bcbb28194e588e0e_curva_diaria_RES-Tipo6_curva_anual_0.22_0.41_0.77_0.67_0.65_0.3_0.12_0.17_0.19_0.0_0.0_0.16_carga_baixa Bus1=59808290827458904BT.1.2.3 Phases=3
~ Conn=wye Model=1 Kv=0.22 Kw=1 pf=0.92

New Load.nome_00742a2106e6be4a28bfafb5112686bd6f8fd27f80f40ff41ee3cdad8da91e60_curva_diaria_COM-Tipo5_curva_anual_0.1_0.13_0.16_0.14_0.13_0.1_0.13_0.27_0.31_0.53_0.27_0.12_carga_baixa Bus1=59833749827365268BT.1.2 Phases=2
~ Conn=wye Model=1 Kv=0.22 Kw=1 pf=0.92

New Load.nome_0084affe855708922cdd213a9fefa054cdc6faa6078f74efcc407bb6f9084198_curva_diaria_RES-Tipo6_curva_anual_0.65_0.59_0.79_0.76_0.81_0.59_0.74_1.07_0.86_1.02_0.0_0.0_carga_baixa Bus1=59861289827457904BT.1.2 Phases=2
~ Conn=wye Model=1 Kv=0.22 Kw=1 pf=0.92

New Load.nome_00900c72a4a0d0329f064049e12d4960d6b1e536eaaa11ffadf3c99b82ee4016_curva_diaria_IND-Tipo8_curva_anual_0.89_0.63_0.66_0.44_0.19_0.07_0.11_0.0_1.56_2.05_1.22_0.95_carga_baixa Bus1=59830493827354161BT.1.2.3 Phases=3
~ Conn=wye Model=1 Kv=0.22 Kw=1 pf=0.92

New Load.nome_009bab79a31551da6d5c7962a79e82b119f1366509006318af437fa197275314_curva_diaria_IND-Tipo5_curva_anual_0.46_0.54_0.7_0.64_0.61_0.43_0.47_0.82_0.88_1.35_0.94_0.77_carga_baixa Bus1=59845835827451998BT.2.3 Phases=2
~ Conn=wye Model=1 Kv=0.22 Kw=1 pf=0.92

New Load.nome_009fb4678dce62c307ec9408305e70de406adf164990f33f8158cee76453b052_curva_diaria_COM-Tipo5_curva_anual_1.26_1.08_1.36_1.11_0.92_0.63_0.78_1.53_2.13_3.24_2.17_1.75_carga_baixa Bus1=59852531827322501BT.1.2 Phases=2
~ Conn=wye Model=1 Kv=0.22 Kw=1 pf=0.92

New Load.nome_00b503b451adacc66ae5d90ec5ec48d1a6c266563a27d2eb1a5da6c46d8c0e18_curva_diaria_COM-Tipo9_curva_anual_0.11_0.1_0.06_0.0_0.12_0.0_0.23_0.15_0.37_1.32_0.94_0.92_carga_baixa Bus1=59838741827344416BT.1.2.3 Phases=3
~ Conn=wye Model=1 Kv=0.22 Kw=1 pf=0.92

New Load.nome_00fa771e0c4845fcf1c69bea868462c8c482c5477f1f7b4534aa66670857a848_curva_diaria_RES-Tipo10_curva_anual_0.0_0.0_0.0_0.0_0.0_0.0_0.0_0.0_0.0_0.0_0.0_0.68_carga_baixa Bus1=59818898827436374BT.1.2.3 Phases=3
~ Conn=wye Model=1 Kv=0.22 Kw=1 pf=0.92

New Load.nome_0100f907d3674828fdf7b764f4f7d50e757e03026e4e7eb0ab845aac93da5b97_curva_diaria_RES-Tipo9_curva_anual_0.49_0.0_1.21_0.77_0.55_0.58_0.68_0.87_1.3_3.26_1.68_1.34_carga_baixa Bus1=59857862827315766BT.1.2.3 Phases=3
~ Conn=wye Model=1 Kv=0.22 Kw=1 pf=0.92

New Load.nome_011fd886ccd170f443f7337a552e5e02780639dff81b9e50d095274e679a1c33_curva_diaria_COM-Tipo5_curva_anual_5.79_4.64_5.73_5.21_5.47_4.32_4.82_7.89_8.43_12.85_8.25_7.2_carga_baixa Bus1=59827748827359779BT.1.2.3 Phases=3
~ Conn=wye Model=1 Kv=0.22 Kw=1 pf=0.92

New Load.nome_0123c15b72a3ca99216c508e15c4cac645d4fd3ef697a30fa54c25f953414f2a_curva_diaria_RES-Tipo1_curva_anual_0.73_1.06_1.64_0.94_0.9_0.82_0.12_0.68_1.78_2.26_4.57_2.56_carga_baixa Bus1=59867416827331065BT.1.3 Phases=2
~ Conn=wye Model=1 Kv=0.22 Kw=1 pf=0.92

New Load.nome_0127d049d107b35c53a7bf44a5739cd8910206846d73360ea093ef0f49ce99a1_curva_diaria_COM-Tipo1_curva_anual_3.85_7.37_10.35_9.8_9.89_6.25_7.25_15.11_17.54_28.42_17.11_9.08_carga_baixa Bus1=59852208827347190BT.1.2.3 Phases=3
~ Conn=wye Model=1 Kv=0.22 Kw=1 pf=0.92

New Load.nome_01331eae097f0564014c757045eedcc79569b457336f92ca0b8b334004e86f63_curva_diaria_COM-Tipo1_curva_anual_2.41_2.08_2.84_2.84_2.47_1.35_0.83_1.65_2.34_3.21_1.85_1.42_carga_baixa Bus1=59839257827393450BT.1.2.3 Phases=3
~ Conn=wye Model=1 Kv=0.22 Kw=1 pf=0.92

New Load.nome_017dffea32a65888e9b2f16e29ed82d7f8cb5c3c0afb0ab2cbcc1c7ced58b4f4_curva_diaria_IND-Tipo4_curva_anual_0.9_0.67_0.84_0.83_0.81_0.64_0.86_1.46_1.62_2.66_1.7_1.48_carga_baixa Bus1=59879690827487300BT.1.2 Phases=2
~ Conn=wye Model=1 Kv=0.22 Kw=1 pf=0.92

New Load.nome_0188883faf1020f5a0a72a4ac93a6506164f1b0ce814c2c2ec11dda74f93936e_curva_diaria_RES-Tipo7_curva_anual_0.81_1.97_0.28_0.71_1.7_1.95_0.27_1.59_4.19_3.56_5.32_4.21_carga_baixa Bus1=59812726827399714BT.1.2.3 Phases=3
~ Conn=wye Model=1 Kv=0.22 Kw=1 pf=0.92

New Load.nome_01a203fc390dbbc5f207f6fdfefa53318e4c2c58fc5726c2c93bf2c54536f08e_curva_diaria_RES-Tipo10_curva_anual_0.46_0.35_0.45_0.4_0.39_0.25_0.11_0.08_0.0_1.02_0.64_0.03_carga_baixa Bus1=59848699827378549BT.1.3 Phases=2
~ Conn=wye Model=1 Kv=0.22 Kw=1 pf=0.92

New Load.nome_01ad44ba1e9242904e66530d10d37b73f8ecef890e4c187814616cd205686c74_curva_diaria_RES-Tipo8_curva_anual_0.37_0.18_0.02_0.0_0.38_0.26_0.58_1.44_1.78_2.9_1.72_1.14_carga_baixa Bus1=59863406827455188BT.1.2 Phases=2
~ Conn=wye Model=1 Kv=0.22 Kw=1 pf=0.92

New Load.nome_01e48dbd849a36d3b6cd7c292f62b242076761e1128a6df87561572180a0174f_curva_diaria_RES-Tipo1_curva_anual_1.01_0.86_1.05_0.9_0.63_0.24_0.79_1.78_2.34_1.31_0.75_2.24_carga_baixa Bus1=59853604827339422BT.2.3 Phases=2
~ Conn=wye Model=1 Kv=0.22 Kw=1 pf=0.92

New Load.nome_01e7ddc99dc27a0ac6dd09a905691fb30201c752902773e1d6ad01a8cbba2231_curva_diaria_RES-Tipo8_curva_anual_0.79_0.71_0.86_0.47_1.04_0.62_0.86_1.6_2.15_3.59_2.19_1.73_carga_baixa Bus1=59885136827477109BT.1.2.3 Phases=3
~ Conn=wye Model=1 Kv=0.22 Kw=1 pf=0.92

New Load.nome_01e92756aff218c1e1dd1c127aa3b3cf8199c3cf79fe83e4784314067682793c_curva_diaria_RES-Tipo4_curva_anual_0.0_0.0_0.0_0.0_0.0_0.0_0.0_0.0_0.0_0.0_0.0_0.0_carga_baixa Bus1=315849IS.2.4 Phases=1
~ Conn=wye Model=1 Kv=0.127 Kw=1 pf=0.92

New Load.nome_01f57f4a3acc17da30ba11fa4f89652908f236c89071f6a5a932d3a819153fc3_curva_diaria_RES-Tipo2_curva_anual_0.0_0.0_0.0_0.0_0.0_0.0_0.0_0.05_0.1_0.38_0.0_0.0_carga_baixa Bus1=59828307827381771BT.3.4 Phases=1
~ Conn=wye Model=1 Kv=0.127 Kw=1 pf=0.92

New Load.nome_01f8aaca165dc368b6736dc934889804a7212f66fe04cbf4e82538a6dcd090c0_curva_diaria_RES-Tipo1_curva_anual_1.5_1.94_2.82_1.74_1.72_1.74_0.25_1.32_3.74_3.77_4.99_5.44_carga_baixa Bus1=59865450827479753BT.1.2.3 Phases=3
~ Conn=wye Model=1 Kv=0.22 Kw=1 pf=0.92

New Load.nome_021fe8d08e5075b1a012d799bc852082cfc95705d9e60e167a043ce1292a88be_curva_diaria_RES-Tipo6_curva_anual_0.88_0.73_0.0_0.0_0.0_0.07_0.26_0.38_0.39_0.36_0.03_0.16_carga_baixa Bus1=59832488827378841BT.1.2.3 Phases=3
~ Conn=wye Model=1 Kv=0.22 Kw=1 pf=0.92

New Load.nome_022b56f3cc0403597a5bf6665ea03e3dddc53a37f4510c7d34af704b40ad29e3_curva_diaria_RES-Tipo1_curva_anual_0.0_0.17_0.44_0.48_0.49_0.4_0.43_0.43_0.63_1.12_0.58_0.58_carga_baixa Bus1=59806079827406683BT.2.4 Phases=1
~ Conn=wye Model=1 Kv=0.127 Kw=1 pf=0.92

New Load.nome_023c71353aab0bc5988f16a4a2e81a3fbb3ef958c6d219818c6553b456751042_curva_diaria_RES-Tipo1_curva_anual_1.04_0.85_1.09_0.92_1.01_0.51_0.37_0.55_0.58_1.37_1.52_1.38_carga_baixa Bus1=59862330827469055BT.1.2.3 Phases=3
~ Conn=wye Model=1 Kv=0.22 Kw=1 pf=0.92

New Load.nome_025803e1259160a05175b48b04b67f951c377b179f65a74353973a01535e2c0c_curva_diaria_RES-Tipo4_curva_anual_0.99_0.98_1.28_1.18_1.17_0.8_0.84_1.76_2.12_3.34_2.26_1.83_carga_baixa Bus1=59860718827451397BT.1.3.4 Phases=2
~ Conn=wye Model=1 Kv=0.22 Kw=1 pf=0.92

New Load.nome_027048e8ac04c5608fe683fb34a2b4fd77ae45f593891335559f9c4e56afca82_curva_diaria_RES-Tipo10_curva_anual_0.15_0.35_0.7_0.62_0.57_0.26_0.07_0.1_0.06_0.0_0.57_0.85_carga_baixa Bus1=59860799827447176BT.1.2 Phases=2
~ Conn=wye Model=1 Kv=0.22 Kw=1 pf=0.92

New Load.nome_029bdd50178471c5ddd685079d14264d4f15543defce5494e70691784adaf5b2_curva_diaria_RES-Tipo1_curva_anual_1.47_1.38_1.8_1.57_1.43_0.96_0.97_1.79_2.19_3.44_2.94_3.44_carga_baixa Bus1=59846324827362334BT.1.2.3 Phases=3
~ Conn=wye Model=1 Kv=0.22 Kw=1 pf=0.92

New Load.nome_02a7b5c7f7b19495f79bc0c162e9f81c461b5b63501ccc29cb0bda78785324ea_curva_diaria_IND-Tipo1_curva_anual_0.0_0.0_0.0_0.0_0.0_0.0_0.0_0.0_0.0_0.0_0.0_0.0_carga_baixa Bus1=303162IS.1.3 Phases=2
~ Conn=wye Model=1 Kv=0.22 Kw=1 pf=0.92

New Load.nome_02ab817fcfa2bb0cb5dc473bcfed1d7808315d9acc8a7533c2bcf122e22cdfc4_curva_diaria_RES-Tipo8_curva_anual_0.0_0.0_0.97_0.65_0.67_0.47_0.48_0.9_1.14_1.97_1.27_0.99_carga_baixa Bus1=59864798827453785BT.2.3 Phases=2
~ Conn=wye Model=1 Kv=0.22 Kw=1 pf=0.92

New Load.nome_02b55031b08db678275dc65ddd2b6bb33a8cdc5feb5d546c60cbeefcfd52ed0e_curva_diaria_RES-Tipo6_curva_anual_0.35_0.4_0.52_0.41_0.37_0.26_0.34_0.55_0.59_1.14_0.81_0.48_carga_baixa Bus1=59885880827299512BT.1.2 Phases=2
~ Conn=wye Model=1 Kv=0.22 Kw=1 pf=0.92

New Load.nome_02ba3e5c878b5648bcb8736ef0b983d5408f2e058f7e0d388493c1876bbcf3c0_curva_diaria_RES-Tipo1_curva_anual_0.76_0.6_0.82_0.79_0.8_0.62_0.78_1.36_1.51_2.28_1.49_1.2_carga_baixa Bus1=59854541827465346BT.1.2 Phases=2
~ Conn=wye Model=1 Kv=0.22 Kw=1 pf=0.92

New Load.nome_02c319a82a152ed3b48b076e619f382933ced1c4bc373777f9bda82d232961a1_curva_diaria_RES-Tipo1_curva_anual_0.74_0.59_0.72_0.64_0.64_0.45_0.48_0.94_1.3_1.85_1.15_0.95_carga_baixa Bus1=59845384827388833BT.1.3 Phases=2
~ Conn=wye Model=1 Kv=0.22 Kw=1 pf=0.92

New Load.nome_02e591ba71f256c45c83c4b8a39caa7dc34bc43081899557db941fffa836b9a2_curva_diaria_RES-Tipo4_curva_anual_0.1_0.05_0.0_0.0_0.0_0.0_0.0_0.0_0.0_0.0_0.0_1.82_carga_baixa Bus1=59884638827539788BT.2.3 Phases=2
~ Conn=wye Model=1 Kv=0.22 Kw=1 pf=0.92

New Load.nome_03078441c55a663afa4d67346bf975148705a17f786573086407a39b0c725ba1_curva_diaria_RES-Tipo2_curva_anual_0.0_0.0_0.0_0.0_0.0_0.0_0.0_0.0_0.0_0.0_0.0_0.0_carga_baixa Bus1=963991IS.1.2 Phases=2
~ Conn=wye Model=1 Kv=0.22 Kw=1 pf=0.92

New Load.nome_03473718f9ccc83c9d65bc6ad7485b41963e6329453385360b5b9e6fea97c72b_curva_diaria_RES-Tipo7_curva_anual_0.88_0.74_0.93_0.84_0.63_0.83_0.0_0.0_0.0_0.0_0.0_0.0_carga_baixa Bus1=59845197827469848BT.1.3 Phases=2
~ Conn=wye Model=1 Kv=0.22 Kw=1 pf=0.92

New Load.nome_0398bef56ce9195dbe0f3963e5f81d49b93d2e2f63afc944d4512aafb55981af_curva_diaria_COM-Tipo1_curva_anual_0.42_0.42_0.63_0.49_0.44_0.42_0.49_0.76_0.8_1.14_0.78_0.73_carga_baixa Bus1=59845472827388611BT.1.2.3 Phases=3
~ Conn=wye Model=1 Kv=0.22 Kw=1 pf=0.92

New Load.nome_03d7380580b9bef1fa847aa2e8459352ca81279d52b75cfd2b5017f3640f7178_curva_diaria_RES-Tipo2_curva_anual_0.22_0.13_0.23_0.22_0.19_0.08_0.09_0.2_0.23_0.3_0.18_0.25_carga_baixa Bus1=59859162827285833BT.1.4 Phases=1
~ Conn=wye Model=1 Kv=0.127 Kw=1 pf=0.92

New Load.nome_040ae35177844915e4320299483b6f48089aa51ae3c54d46a95c9645a5879f33_curva_diaria_RES-Tipo4_curva_anual_0.43_0.36_0.48_0.44_0.46_0.37_0.38_0.57_0.97_2.61_1.7_0.97_carga_baixa Bus1=59823729827376774BT.1.3 Phases=2
~ Conn=wye Model=1 Kv=0.22 Kw=1 pf=0.92

New Load.nome_0430fb05e1d816b86940f073e103adbb9eefd28892a5408bed63b48b582065b6_curva_diaria_RES-Tipo6_curva_anual_0.47_0.58_0.86_0.8_0.82_0.6_0.74_1.27_1.53_2.39_1.51_0.58_carga_baixa Bus1=59885880827299512BT.1.2 Phases=2
~ Conn=wye Model=1 Kv=0.22 Kw=1 pf=0.92

New Load.nome_0438f29a51492d7e5b54109da56e18012ab17501f30f92722820251ff5c3a355_curva_diaria_RES-Tipo5_curva_anual_0.28_0.27_0.34_0.28_0.28_0.17_0.19_0.41_0.48_0.72_0.49_0.44_carga_baixa Bus1=59852556827366341BT.2.3 Phases=2
~ Conn=wye Model=1 Kv=0.22 Kw=1 pf=0.92

New Load.nome_04489399d22d8b9bc130460c6cad611a53f1551f6c93b9209ebe85fa67e46d32_curva_diaria_RES-Tipo7_curva_anual_0.45_0.43_0.51_0.34_0.33_0.24_0.25_0.45_0.64_1.48_1.11_0.9_carga_baixa Bus1=59866464827286309BT.2.3 Phases=2
~ Conn=wye Model=1 Kv=0.22 Kw=1 pf=0.92

New Load.nome_045a9fb5bf8e54a2c4728324603305edd4c5f4a34f639ff474611b83e8bb0fca_curva_diaria_RES-Tipo10_curva_anual_0.3_0.27_0.34_0.23_0.25_0.21_0.29_0.5_0.53_0.82_0.5_0.4_carga_baixa Bus1=59886621827306198BT.1.2 Phases=2
~ Conn=wye Model=1 Kv=0.22 Kw=1 pf=0.92

New Load.nome_04669f81e3d9bc80b80e6b1c7ff9f745b4f60deb6169b3ef3c18b42c31c65502_curva_diaria_RES-Tipo6_curva_anual_1.77_2.16_3.03_1.88_2.02_1.95_0.31_1.78_5.51_5.22_7.92_6.43_carga_baixa Bus1=59869676827469576BT.1.2.3 Phases=3
~ Conn=wye Model=1 Kv=0.22 Kw=1 pf=0.92

New Load.nome_0474aff62911ee72d71e858ef5fdf9e302170365c6f2e14d3793a7958e8c3ed2_curva_diaria_RES-Tipo3_curva_anual_0.18_0.19_0.28_0.26_0.28_0.2_0.29_0.63_0.88_1.37_0.85_0.74_carga_baixa Bus1=59844514827473004BT.1.3 Phases=2
~ Conn=wye Model=1 Kv=0.22 Kw=1 pf=0.92

New Load.nome_04abc8e309805388f08376d28b5f3af8fb45e7ee59ce38c656949029226085b2_curva_diaria_RES-Tipo4_curva_anual_0.0_0.0_0.0_0.0_0.0_0.0_0.0_0.0_0.0_0.0_0.0_0.0_carga_baixa Bus1=3249499IS.2.4 Phases=1
~ Conn=wye Model=1 Kv=0.127 Kw=1 pf=0.92

New Load.nome_04bbd72128941145be34249057e7134d5c4de7c6e570380f0ee895d91736ab80_curva_diaria_IND-Tipo5_curva_anual_5.34_4.21_5.26_4.87_4.78_3.07_4.52_8.38_9.28_13.69_7.82_7.0_carga_baixa Bus1=59890914827521257BT.1.2.3 Phases=3
~ Conn=wye Model=1 Kv=0.22 Kw=1 pf=0.92

New Load.nome_04da12670e350c4d108795055e2010dc7d3f11dc8e9d5769dca15c4ff5e4b5b5_curva_diaria_COM-Tipo3_curva_anual_0.35_0.28_0.26_0.18_0.23_0.15_0.18_0.35_0.28_0.44_0.23_0.15_carga_baixa Bus1=59890061827471628BT.1.2.3 Phases=3
~ Conn=wye Model=1 Kv=0.22 Kw=1 pf=0.92

New Load.nome_04e2631b7ac2d3b6625673506a8778f8797ddf34b8e86b04219dc1ff7fdf49ec_curva_diaria_RES-Tipo8_curva_anual_0.0_0.29_0.39_0.34_0.3_0.27_0.3_0.52_0.56_0.83_0.69_0.43_carga_baixa Bus1=59852851827446362BT.1.2 Phases=2
~ Conn=wye Model=1 Kv=0.22 Kw=1 pf=0.92

New Load.nome_051868f362ae254fcdce51e234f2e3d8627c6c00a3e38bbc048946d05c328aaf_curva_diaria_RES-Tipo6_curva_anual_0.09_0.07_0.09_0.07_0.07_0.06_0.06_0.11_0.13_0.21_0.14_0.22_carga_baixa Bus1=59886444827311881BT.1.3 Phases=2
~ Conn=wye Model=1 Kv=0.22 Kw=1 pf=0.92

New Load.nome_0528a3fc990aefabe6fee6a6d71bd0f53032eb2d929658e076f8689398c3f580_curva_diaria_RES-Tipo5_curva_anual_0.0_0.0_0.0_0.0_0.0_0.0_0.0_0.0_0.0_0.3_0.52_0.48_carga_baixa Bus1=59848681827378659BT.2.4 Phases=1
~ Conn=wye Model=1 Kv=0.127 Kw=1 pf=0.92

New Load.nome_0549941c679930790bb3b7475607a89c546ee3504fc1e05783b2d6e248ec20f0_curva_diaria_RES-Tipo5_curva_anual_0.9_1.07_1.39_1.2_1.14_0.72_0.91_1.69_1.94_2.9_1.76_1.54_carga_baixa Bus1=59836095827456833BT.1.2.3 Phases=3
~ Conn=wye Model=1 Kv=0.22 Kw=1 pf=0.92

New Load.nome_054e18dab111e3d15a846b0422c88c2c559199207d6c6aca13515c7ba00679e9_curva_diaria_RES-Tipo2_curva_anual_0.36_0.3_0.4_0.34_0.35_0.27_0.3_0.5_0.62_0.92_0.52_0.51_carga_baixa Bus1=59865432827465086BT.1.3 Phases=2
~ Conn=wye Model=1 Kv=0.22 Kw=1 pf=0.92

New Load.nome_05b47c297f5154b19f7716a833cb3e7e563035728ef5ec7d9e1d36f398e45760_curva_diaria_RES-Tipo3_curva_anual_0.21_0.31_0.36_0.19_0.23_0.32_0.3_0.49_0.52_0.59_0.38_0.43_carga_baixa Bus1=59845185827380156BT.1.2.3 Phases=3
~ Conn=wye Model=1 Kv=0.22 Kw=1 pf=0.92

New Load.nome_05bf7417102b75414be318ca2a638d2e343540f71cdf093f03ef086e43d84c6b_curva_diaria_COM-Tipo1_curva_anual_7.49_4.17_7.26_3.58_3.5_2.73_3.24_5.08_6.01_10.47_7.38_6.6_carga_baixa Bus1=59830122827468377BT.1.2.3 Phases=3
~ Conn=wye Model=1 Kv=0.22 Kw=1 pf=0.92

New Load.nome_05df3b81d0459e5d32a6243b74ace9be11d465b304dd306dc0e169670eeb57cf_curva_diaria_RES-Tipo1_curva_anual_0.33_0.22_0.31_0.35_0.29_0.24_0.34_0.6_0.51_0.78_0.55_0.55_carga_baixa Bus1=59856463827452803BT.1.2 Phases=2
~ Conn=wye Model=1 Kv=0.22 Kw=1 pf=0.92

New Load.nome_05dfe6615f6593bc9da7d66ac19c820f34e9977dd2ab356eefb44a6a46146837_curva_diaria_RES-Tipo1_curva_anual_0.61_0.53_0.72_0.62_0.6_0.49_0.54_0.93_1.14_1.93_1.26_1.04_carga_baixa Bus1=59851388827446956BT.1.2 Phases=2
~ Conn=wye Model=1 Kv=0.22 Kw=1 pf=0.92

New Load.nome_05e272f8a07b76c25763a7cdc3ddebdbd1703306d57c4942186a0ef36eaafd8f_curva_diaria_COM-Tipo3_curva_anual_0.3_0.3_0.43_0.37_0.31_0.17_0.24_0.59_0.8_1.28_0.64_0.4_carga_baixa Bus1=59868725827295521BT.1.2.3 Phases=3
~ Conn=wye Model=1 Kv=0.22 Kw=1 pf=0.92

New Load.nome_060740bb174a538035222aef82e60586d08fce255f51e7d7a51451ad69e8183c_curva_diaria_RES-Tipo1_curva_anual_0.7_0.6_0.83_0.69_0.63_0.51_0.61_1.1_1.33_2.08_1.31_1.07_carga_baixa Bus1=59880794827474506BT.1.2 Phases=2
~ Conn=wye Model=1 Kv=0.22 Kw=1 pf=0.92

New Load.nome_06424626c1a23c0a45303c2b4c7295e5ef713104952ca7b46be02a38ec26314e_curva_diaria_RES-Tipo5_curva_anual_0.51_0.4_0.49_0.46_0.46_0.3_0.39_0.9_1.09_1.68_1.05_0.91_carga_baixa Bus1=59867654827294698BT.1.3 Phases=2
~ Conn=wye Model=1 Kv=0.22 Kw=1 pf=0.92

New Load.nome_06435e6d8e49f5eb5b6827ee7a5e683007145d1d0c4f23c8b633db3e68a6e936_curva_diaria_RES-Tipo5_curva_anual_0.31_0.22_0.26_0.21_0.3_0.31_0.44_0.83_1.0_1.66_1.04_1.12_carga_baixa Bus1=59857656827446168BT.1.2 Phases=2
~ Conn=wye Model=1 Kv=0.22 Kw=1 pf=0.92

New Load.nome_06633c5e84e9f0a613be5a12d760e321d09415d39b03542661d6e80b0aab3a39_curva_diaria_RES-Tipo10_curva_anual_0.65_0.55_0.69_0.61_0.65_0.4_0.41_0.71_0.81_0.75_0.97_0.75_carga_baixa Bus1=59817483827433562BT.1.3 Phases=2
~ Conn=wye Model=1 Kv=0.22 Kw=1 pf=0.92

New Load.nome_06713a9f14446203efa89a998a0ff6f42cd6b23a6e8d6379859f81ad84a8b91d_curva_diaria_RES-Tipo1_curva_anual_0.11_0.09_0.11_0.1_0.1_0.06_0.0_0.0_0.0_0.0_0.04_0.13_carga_baixa Bus1=59862323827448582BT.1.2 Phases=2
~ Conn=wye Model=1 Kv=0.22 Kw=1 pf=0.92

New Load.nome_068716881b6297ec9975e699493536d69658c8c0781364fce5574b81c90303be_curva_diaria_RES-Tipo4_curva_anual_0.36_0.32_0.41_0.36_0.34_0.28_0.31_0.48_0.52_0.76_0.47_0.46_carga_baixa Bus1=59839189827389142BT.1.3 Phases=2
~ Conn=wye Model=1 Kv=0.22 Kw=1 pf=0.92

New Load.nome_0696004d6005a2a48326616223d509f375a393a702a9d4298c012e242bdeaab0_curva_diaria_RES-Tipo4_curva_anual_0.35_0.29_0.35_0.31_0.33_0.27_0.29_0.41_0.44_0.64_0.41_0.39_carga_baixa Bus1=59880516827301445BT.1.2 Phases=2
~ Conn=wye Model=1 Kv=0.22 Kw=1 pf=0.92

New Load.nome_069ba8d4abe0a6d4e6875fafebf949e709de62bc1b3402818a3f852955210c39_curva_diaria_RES-Tipo1_curva_anual_0.58_0.42_0.5_0.45_0.3_0.19_0.25_0.62_1.0_1.58_0.94_0.81_carga_baixa Bus1=59832944827350721BT.1.2 Phases=2
~ Conn=wye Model=1 Kv=0.22 Kw=1 pf=0.92

New Load.nome_06ad559d4ef82a3a267b664143da2ecf0fe8870aa5f10cc1a0e418873ea31e7e_curva_diaria_RES-Tipo6_curva_anual_0.54_0.37_0.42_0.42_0.42_0.33_0.53_0.87_1.04_1.86_1.24_0.29_carga_baixa Bus1=59871030827296055BT.1.3 Phases=2
~ Conn=wye Model=1 Kv=0.22 Kw=1 pf=0.92

New Load.nome_06da607c48fe4e4cd5ed684b8bb1b12de48bc392abc20887975e46838f5975e4_curva_diaria_RES-Tipo5_curva_anual_0.0_0.0_0.0_0.0_0.0_0.0_0.0_0.0_0.0_0.0_0.0_0.0_carga_baixa Bus1=1108559IS.2.3 Phases=2
~ Conn=wye Model=1 Kv=0.22 Kw=1 pf=0.92

New Load.nome_06fd17e4937efa4ce13467c9c082400a524850c761784615f9f7533d49fc322e_curva_diaria_COM-Tipo3_curva_anual_1.89_1.58_2.01_1.79_1.85_1.52_1.61_2.37_2.11_1.24_0.0_0.08_carga_baixa Bus1=59847272827469870BT.2.3 Phases=2
~ Conn=wye Model=1 Kv=0.22 Kw=1 pf=0.92

New Load.nome_07057f08ff146b00514339d8e02e5c89f09a52cf48aee5a856675ac63b3af63e_curva_diaria_RES-Tipo7_curva_anual_0.07_0.14_0.24_0.19_0.33_0.14_0.23_0.12_0.11_0.24_0.19_0.03_carga_baixa Bus1=59837381827463087BT.1.2.3 Phases=3
~ Conn=wye Model=1 Kv=0.22 Kw=1 pf=0.92

New Load.nome_07556723bd1dc664942914fa08000216cef33adb37288c6976487a719be91fa8_curva_diaria_RES-Tipo1_curva_anual_0.69_0.59_0.76_0.69_0.66_0.44_0.6_1.16_1.47_2.41_1.46_1.17_carga_baixa Bus1=59862645827463362BT.1.2.3 Phases=3
~ Conn=wye Model=1 Kv=0.22 Kw=1 pf=0.92

New Load.nome_07582466406afc5f1656842296e2cb77c6d620753356d27cee140719cf16b2e9_curva_diaria_RES-Tipo1_curva_anual_0.32_0.26_0.34_0.31_0.3_0.25_0.35_0.66_0.59_1.27_1.02_0.55_carga_baixa Bus1=59820783827372701BT.1.3 Phases=2
~ Conn=wye Model=1 Kv=0.22 Kw=1 pf=0.92

New Load.nome_0764101ee9ae85da483466abd1b11bc58e8265d0c73576d99be138cbc6ed53cf_curva_diaria_RES-Tipo7_curva_anual_0.8_0.56_0.71_0.49_0.44_0.38_0.49_1.07_1.35_1.97_1.25_1.07_carga_baixa Bus1=59887747827305009BT.1.2 Phases=2
~ Conn=wye Model=1 Kv=0.22 Kw=1 pf=0.92

New Load.nome_0772677a5643c93b44959459f26fb8b1be06fc3c6d919efee4fb2eaf9ee48208_curva_diaria_RES-Tipo1_curva_anual_0.03_0.02_0.04_0.04_0.03_0.03_0.03_0.04_0.04_0.07_0.19_0.16_carga_baixa Bus1=59813017827399955BT.1.2.3 Phases=3
~ Conn=wye Model=1 Kv=0.22 Kw=1 pf=0.92

New Load.nome_0774080af4d3a33fbc25257c00e5b4c926849784aae4a02d80be88133ee2abb8_curva_diaria_RES-Tipo8_curva_anual_1.54_0.64_0.67_0.9_1.27_0.73_1.04_2.11_2.29_3.39_2.21_2.19_carga_baixa Bus1=59820091827436010BT.1.2.3 Phases=3
~ Conn=wye Model=1 Kv=0.22 Kw=1 pf=0.92

New Load.nome_078e72d53e333b260da66bba5da152243a3f0697eb6158b3a32285983f0a47d0_curva_diaria_RES-Tipo6_curva_anual_0.22_0.17_0.24_0.23_0.22_0.15_0.2_0.35_0.48_0.72_0.29_0.16_carga_baixa Bus1=59865770827286380BT.1.2 Phases=2
~ Conn=wye Model=1 Kv=0.22 Kw=1 pf=0.92

New Load.nome_07b139d169e47e7b499be57d16edecb6cee11b415eceb2061a98942b6e889015_curva_diaria_RES-Tipo10_curva_anual_0.0_0.0_0.0_0.0_0.0_0.0_0.0_0.0_0.0_0.0_0.76_0.73_carga_baixa Bus1=59834642827450276BT.1.3 Phases=2
~ Conn=wye Model=1 Kv=0.22 Kw=1 pf=0.92

New Load.nome_07b52e86ce890f37c32f9511cd63ad2259bfee73412c67b1152b402e1de38b8b_curva_diaria_RES-Tipo2_curva_anual_1.06_0.93_1.16_1.03_0.98_0.68_0.83_1.66_2.11_3.5_2.14_1.57_carga_baixa Bus1=59811111827367703BT.1.2.3 Phases=3
~ Conn=wye Model=1 Kv=0.22 Kw=1 pf=0.92

New Load.nome_07cde0563f64bf3950b85bad11571ead99844071195ce3d7a45955250be75ff8_curva_diaria_RES-Tipo8_curva_anual_0.0_1.16_0.58_0.52_0.59_0.42_0.27_0.84_1.25_1.91_1.15_0.71_carga_baixa Bus1=59836883827463743BT.1.2.3 Phases=3
~ Conn=wye Model=1 Kv=0.22 Kw=1 pf=0.92

New Load.nome_07d364195184e55acfefc75ad7a1b8a9a6079838625e841cbbf9376f5828e561_curva_diaria_RES-Tipo1_curva_anual_0.67_0.59_0.75_0.76_0.97_0.43_0.45_0.84_1.16_1.59_1.05_1.33_carga_baixa Bus1=59894406827481619BT.1.2.3 Phases=3
~ Conn=wye Model=1 Kv=0.22 Kw=1 pf=0.92

New Load.nome_07eacb2e9b55ae989872f16e7549bcf8bb9c5206ef19162ab6d06da7fa9467e5_curva_diaria_RES-Tipo5_curva_anual_0.94_0.8_1.03_0.96_0.95_0.67_0.87_1.76_2.25_3.46_2.14_1.82_carga_baixa Bus1=59817995827427042BT.1.2.3 Phases=3
~ Conn=wye Model=1 Kv=0.22 Kw=1 pf=0.92

New Load.nome_08222014f8ede825f1992552bb57fc86907e2899eb2c4c53658bbd7d980a834d_curva_diaria_RES-Tipo7_curva_anual_0.0_0.34_0.55_0.46_0.44_0.28_0.35_0.67_0.66_0.38_0.13_0.13_carga_baixa Bus1=59883862827323078BT.1.2 Phases=2
~ Conn=wye Model=1 Kv=0.22 Kw=1 pf=0.92

New Load.nome_083fc480aa3c3568d3a255824c2494027602eb0234fbaa6ea141db81a468b1ce_curva_diaria_RES-Tipo2_curva_anual_0.0_0.0_0.0_0.0_0.0_0.0_0.0_0.0_0.0_0.0_0.0_0.0_carga_baixa Bus1=943370IS.1.2 Phases=2
~ Conn=wye Model=1 Kv=0.22 Kw=1 pf=0.92

New Load.nome_085967fd63723170c05704f23a3a70f20a0506ae8cc109466b4012ae9bbee6bd_curva_diaria_RES-Tipo10_curva_anual_0.61_0.44_0.59_0.54_0.54_0.39_0.48_0.79_0.42_2.15_1.03_0.97_carga_baixa Bus1=59859800827470854BT.1.2 Phases=2
~ Conn=wye Model=1 Kv=0.22 Kw=1 pf=0.92

New Load.nome_087004b5c86d3b9591e0caf1e9ddae959073fc8531df94955a7a70d0ee6e2809_curva_diaria_RES-Tipo6_curva_anual_1.11_0.87_1.16_1.02_1.09_0.78_1.03_1.9_2.46_3.84_2.26_2.3_carga_baixa Bus1=59867746827312350BT.1.2.3 Phases=3
~ Conn=wye Model=1 Kv=0.22 Kw=1 pf=0.92

New Load.nome_0885dbff5ef32459f03a2d6bb4b834006b469b309baf9953067764c2e35877b5_curva_diaria_RES-Tipo6_curva_anual_0.69_0.62_0.77_0.72_0.7_0.52_0.56_0.81_0.96_2.22_1.82_1.47_carga_baixa Bus1=59852697827452079BT.1.2 Phases=2
~ Conn=wye Model=1 Kv=0.22 Kw=1 pf=0.92

New Load.nome_08a62352da589003fa023bb5a8ecf2850326d676a8491cf010a2967b1482ae87_curva_diaria_RES-Tipo9_curva_anual_0.08_0.0_0.0_0.0_0.0_0.0_0.0_0.86_0.82_1.47_0.85_0.79_carga_baixa Bus1=59854026827467380BT.1.2 Phases=2
~ Conn=wye Model=1 Kv=0.22 Kw=1 pf=0.92

New Load.nome_08b6e387a4b9e18885b35c81e5e8d2862cbb810bf475a93ece636e4a03629067_curva_diaria_COM-Tipo6_curva_anual_3.91_4.89_4.13_3.67_3.68_2.07_0.0_0.0_0.0_0.0_0.0_0.0_carga_baixa Bus1=59863472827294963BT.1.2.3 Phases=3
~ Conn=wye Model=1 Kv=0.22 Kw=1 pf=0.92

New Load.nome_08b8b25537951c6c2190a3d2ff27b6bc1e468c3469cfafb7ae4b99b9da406367_curva_diaria_RES-Tipo1_curva_anual_0.52_0.46_0.56_0.48_0.47_0.43_0.5_0.55_0.66_0.91_0.59_0.55_carga_baixa Bus1=59886697827314978BT.1.2.3 Phases=3
~ Conn=wye Model=1 Kv=0.22 Kw=1 pf=0.92

New Load.nome_08d0bb258d98ff3740fb1290e2b744c6e1d80dae7946c9a5a9cde0b187772f3b_curva_diaria_RES-Tipo3_curva_anual_1.26_1.0_1.51_1.44_1.17_0.72_0.83_1.45_1.74_2.77_1.72_1.74_carga_baixa Bus1=59832834827362466BT.2.3 Phases=2
~ Conn=wye Model=1 Kv=0.22 Kw=1 pf=0.92

New Load.nome_08e235f3c0d4fedde8fbf0d67e3de120062af33441e9450125f0c58c51603a42_curva_diaria_COM-Tipo5_curva_anual_0.63_0.52_0.68_0.6_0.63_0.49_0.58_1.07_1.03_1.65_1.18_0.94_carga_baixa Bus1=59824702827393085BT.1.2.3 Phases=3
~ Conn=wye Model=1 Kv=0.22 Kw=1 pf=0.92

New Load.nome_08f79133978bcf404fb8268549665e244330ef31bae56ff9cd5b0145c6e3247b_curva_diaria_RES-Tipo7_curva_anual_0.76_0.36_0.45_0.49_0.38_0.31_0.35_0.52_0.46_0.82_0.76_0.95_carga_baixa Bus1=59858273827287060BT.1.2 Phases=2
~ Conn=wye Model=1 Kv=0.22 Kw=1 pf=0.92

New Load.nome_08fa1be75364887f891783babbe08359c675ea89a1ae21446de2d12cf3e092bc_curva_diaria_RES-Tipo3_curva_anual_0.1_0.11_0.0_0.0_0.04_0.13_0.17_0.29_0.38_0.49_0.25_0.0_carga_baixa Bus1=59842737827387579BT.1.2.3 Phases=3
~ Conn=wye Model=1 Kv=0.22 Kw=1 pf=0.92

New Load.nome_090f391c6c18cc8f87343968d7f0069c609ce45251e6f17f96987ef4875633f5_curva_diaria_RES-Tipo2_curva_anual_0.0_0.0_1.11_1.09_0.57_0.43_0.44_0.69_0.74_1.1_0.62_0.45_carga_baixa Bus1=59869297827493344BT.1.2.3 Phases=3
~ Conn=wye Model=1 Kv=0.22 Kw=1 pf=0.92

New Load.nome_092036e0e36f76619c86f573c81b18d20cbff7c165b71f2d7556fbe7830d98b0_curva_diaria_COM-Tipo2_curva_anual_0.0_0.0_0.0_0.0_0.0_0.0_0.0_0.0_0.0_0.0_0.0_0.0_carga_baixa Bus1=4325458IS.1.2.3 Phases=3
~ Conn=wye Model=1 Kv=0.22 Kw=1 pf=0.92

New Load.nome_0925f29df6c0386aacc0d5f6e03efaead37a02afff436c1fbd33e2775f449504_curva_diaria_RES-Tipo8_curva_anual_0.0_0.0_0.53_0.32_0.33_0.24_0.29_0.51_0.57_0.88_0.55_0.41_carga_baixa Bus1=59798744827413002BT.2.3 Phases=2
~ Conn=wye Model=1 Kv=0.22 Kw=1 pf=0.92

New Load.nome_0942bfb41c8ade1d944751f4b187abe74c0eb00f97ed004619a392a7648e3805_curva_diaria_RES-Tipo7_curva_anual_1.01_0.97_1.48_1.31_1.19_0.63_0.9_1.7_2.15_3.19_1.59_1.26_carga_baixa Bus1=59860884827374182BT.1.3 Phases=2
~ Conn=wye Model=1 Kv=0.22 Kw=1 pf=0.92

New Load.nome_0958800a3aa78c5cac36b165e6c7ae037a5b61f505b064028f7bb07aedc94938_curva_diaria_RES-Tipo9_curva_anual_0.0_0.0_0.0_0.0_0.0_0.16_0.15_0.17_0.07_0.0_0.0_0.0_carga_baixa Bus1=59848530827471898BT.1.2 Phases=2
~ Conn=wye Model=1 Kv=0.22 Kw=1 pf=0.92

New Load.nome_095b50179795a99f849f68a659a72611f57be4441f6b7a6a50ad8f38b2aebefe_curva_diaria_RES-Tipo7_curva_anual_0.46_0.38_0.49_0.45_0.43_0.36_0.47_0.83_0.92_1.42_0.73_0.25_carga_baixa Bus1=59855195827450941BT.1.2 Phases=2
~ Conn=wye Model=1 Kv=0.22 Kw=1 pf=0.92

New Load.nome_096132048473bbd92229bb2b8fe2184d84486b2e039bf5755b7e6c8f41fa6086_curva_diaria_COM-Tipo4_curva_anual_1.57_1.33_1.77_1.61_1.41_1.06_1.12_1.89_2.27_3.56_2.36_2.04_carga_baixa Bus1=59838392827388898BT.2.3 Phases=2
~ Conn=wye Model=1 Kv=0.22 Kw=1 pf=0.92

New Load.nome_0963bdd70cb77f5d4ab5f456398dba1f5ea730c810d08249a1ff7c570d02e55f_curva_diaria_RES-Tipo8_curva_anual_0.0_0.0_0.0_0.0_0.0_1.92_1.02_1.73_2.25_3.5_2.25_2.15_carga_baixa Bus1=59856067827367731BT.1.3 Phases=2
~ Conn=wye Model=1 Kv=0.22 Kw=1 pf=0.92

New Load.nome_0994486d00d8c3bdfc8d1ce912eefce4cc6a072de41d4d3d12921f218a0b4d70_curva_diaria_RES-Tipo1_curva_anual_2.1_2.43_3.19_2.06_2.16_2.03_0.3_1.53_4.81_5.31_6.88_4.82_carga_baixa Bus1=59878606827323992BT.1.2.3 Phases=3
~ Conn=wye Model=1 Kv=0.22 Kw=1 pf=0.92

New Load.nome_09996d9800b4420e5fe03f94a950ed3fce412963ac5aff431edda478250dbb33_curva_diaria_RES-Tipo7_curva_anual_0.32_0.19_0.13_0.22_0.29_0.27_0.27_0.4_0.43_0.58_0.34_0.0_carga_baixa Bus1=59855888827492059BT.1.2 Phases=2
~ Conn=wye Model=1 Kv=0.22 Kw=1 pf=0.92

New Load.nome_099da28cae0885f649dd18dfcb5048dee68770676c7cb747d4987dceaf8fcbef_curva_diaria_RES-Tipo5_curva_anual_0.67_0.42_0.34_0.29_0.29_0.23_0.26_0.43_0.48_0.7_0.47_0.43_carga_baixa Bus1=59881372827492277BT.1.3 Phases=2
~ Conn=wye Model=1 Kv=0.22 Kw=1 pf=0.92

New Load.nome_09b5bece9660be8f949765004c7d9352219f6a65e9a08e3f2d634879dd060c7b_curva_diaria_RES-Tipo10_curva_anual_0.0_0.0_0.0_0.0_0.0_0.0_0.0_0.0_0.0_0.0_0.0_0.3_carga_baixa Bus1=59805042827413491BT.1.2 Phases=2
~ Conn=wye Model=1 Kv=0.22 Kw=1 pf=0.92

New Load.nome_09baa357bf2d3bb86360367a77e41eef4fb63d8ccd326d221a6315b2e9ab42d3_curva_diaria_RES-Tipo8_curva_anual_0.0_0.46_0.17_0.0_0.0_0.0_0.0_0.0_0.0_0.0_0.0_0.0_carga_baixa Bus1=59817813827384656BT.2.3 Phases=2
~ Conn=wye Model=1 Kv=0.22 Kw=1 pf=0.92

New Load.nome_09e2d6c06368dd12cdb2ccd272503b051c7e46429414e4e8d347a408b2863cc6_curva_diaria_RES-Tipo10_curva_anual_0.38_0.33_0.41_0.41_0.43_0.29_0.23_0.13_0.25_1.07_1.19_0.85_carga_baixa Bus1=59819560827433710BT.1.3 Phases=2
~ Conn=wye Model=1 Kv=0.22 Kw=1 pf=0.92

New Load.nome_09e8a7f2bec4789918f4ebb078408fbf75293176395186a706db07b05d59d190_curva_diaria_RES-Tipo1_curva_anual_0.0_0.0_0.0_0.0_0.0_0.0_0.2_2.34_3.35_2.58_2.59_3.21_carga_baixa Bus1=59867315827473126BT.1.2 Phases=2
~ Conn=wye Model=1 Kv=0.22 Kw=1 pf=0.92

New Load.nome_0a059bd13b97f21441a291a23c490a8c837e92c21ca3fbb8901e1aa2cc3ee966_curva_diaria_RES-Tipo7_curva_anual_0.22_0.18_0.21_0.2_0.14_0.02_0.02_0.01_0.03_0.12_0.11_0.11_carga_baixa Bus1=59852704827457314BT.1.2.3 Phases=3
~ Conn=wye Model=1 Kv=0.22 Kw=1 pf=0.92

New Load.nome_0a0d7184dcc60fc990c647a24cf3af0defdb4ae3b0b7036bae05a04aaee6f9ae_curva_diaria_RES-Tipo6_curva_anual_0.59_0.49_0.69_0.6_0.58_0.48_0.57_0.92_1.07_1.93_1.1_1.01_carga_baixa Bus1=59857980827445391BT.1.2 Phases=2
~ Conn=wye Model=1 Kv=0.22 Kw=1 pf=0.92

New Load.nome_0a1ffc85f05480a70a1706a6365139dbb9aca04efcbc913447ecc4b6e3fefe51_curva_diaria_RES-Tipo7_curva_anual_0.05_0.06_0.01_0.02_0.05_0.07_0.08_0.08_0.05_0.08_0.06_0.07_carga_baixa Bus1=59855942827367695BT.1.2 Phases=2
~ Conn=wye Model=1 Kv=0.22 Kw=1 pf=0.92

New Load.nome_0a288b7294374ac64c16282f14d02548c6d9f979564ba31de7cd2b1867fd0b32_curva_diaria_RES-Tipo1_curva_anual_0.0_0.0_0.0_0.0_0.0_0.0_0.0_0.18_0.63_0.67_0.0_0.0_carga_baixa Bus1=59823867827375669BT.2.3 Phases=2
~ Conn=wye Model=1 Kv=0.22 Kw=1 pf=0.92

New Load.nome_0a2ec26f4203125aff4a8e5af91e837cf8352a055c8cda1059cb6b15ca94d9ad_curva_diaria_COM-Tipo10_curva_anual_0.0_0.0_0.0_0.0_0.0_0.0_0.0_0.0_0.0_0.0_7.06_2.85_carga_baixa Bus1=59821287827432043BT.1.2.3 Phases=3
~ Conn=wye Model=1 Kv=0.22 Kw=1 pf=0.92

New Load.nome_0a3b2e7290c2b0da603ad5a76624f2fd6faa5f92ea9a72c56056c43caf5439ca_curva_diaria_RES-Tipo10_curva_anual_0.0_0.0_0.0_0.0_0.0_0.0_0.0_0.0_0.0_2.29_1.27_0.95_carga_baixa Bus1=59857574827287735BT.1.2 Phases=2
~ Conn=wye Model=1 Kv=0.22 Kw=1 pf=0.92

New Load.nome_0a4194462c8022c61f62dd402321c87280be55bcb8b8eb0dc2bdffabdf207cb8_curva_diaria_RES-Tipo1_curva_anual_0.18_0.17_0.25_0.24_0.2_0.13_0.19_0.3_0.31_0.47_0.3_0.28_carga_baixa Bus1=59833374827421445BT.1.3 Phases=2
~ Conn=wye Model=1 Kv=0.22 Kw=1 pf=0.92

New Load.nome_0a70412e46ac26072bc02644e9c7f18accbd72587b47eda0832e92959ea638dc_curva_diaria_COM-Tipo2_curva_anual_1.38_1.15_1.29_0.97_0.77_0.8_1.07_1.73_1.64_2.33_1.22_0.81_carga_baixa Bus1=59826458827363268BT.1.2 Phases=2
~ Conn=wye Model=1 Kv=0.22 Kw=1 pf=0.92

New Load.nome_0ad95461671670081f7f5fe9bba8019c860e2effd853af1c009ef23021720c18_curva_diaria_COM-Tipo8_curva_anual_10.21_8.46_6.84_0.0_8.66_4.51_5.42_11.0_14.62_24.23_16.52_14.43_carga_baixa Bus1=59820385827387489BT.1.2.3 Phases=3
~ Conn=wye Model=1 Kv=0.22 Kw=1 pf=0.92

New Load.nome_0b0346881d70cb223276c70ae55d60dda05aa7813bab6aca864c5bc5f84575a1_curva_diaria_RES-Tipo9_curva_anual_0.24_0.16_0.0_0.0_0.0_0.0_0.0_0.99_1.03_1.44_0.86_0.64_carga_baixa Bus1=59857574827287735BT.1.3 Phases=2
~ Conn=wye Model=1 Kv=0.22 Kw=1 pf=0.92

New Load.nome_0b5f09bde44ea5c6a4d19be3d8ce835f25128606a27e725852a1c5f805ec6970_curva_diaria_RES-Tipo6_curva_anual_0.32_0.0_0.0_0.0_0.0_0.0_0.0_0.0_0.0_0.0_0.0_0.0_carga_baixa Bus1=59860718827451397BT.1.3 Phases=2
~ Conn=wye Model=1 Kv=0.22 Kw=1 pf=0.92

New Load.nome_0b6066d515d36d512f942f323db3bfa846bb8414d627de93ebf631036583ba5f_curva_diaria_IND-Tipo4_curva_anual_0.0_0.01_0.04_0.06_0.06_0.05_0.05_0.08_0.09_0.13_0.08_0.08_carga_baixa Bus1=59811215827404467BT.1.2 Phases=2
~ Conn=wye Model=1 Kv=0.22 Kw=1 pf=0.92

New Load.nome_0b6b8266772530a840d29fe660809896ba52f8a746959735d4f149fb742248eb_curva_diaria_RES-Tipo1_curva_anual_0.76_0.69_1.11_0.73_0.58_0.47_0.51_1.0_1.09_2.46_3.54_4.21_carga_baixa Bus1=59820091827436010BT.1.2.3 Phases=3
~ Conn=wye Model=1 Kv=0.22 Kw=1 pf=0.92

New Load.nome_0b8055c2de9d648a427c89c42a52dccfb5eff34a22859595fd4ddfff0191031b_curva_diaria_RES-Tipo1_curva_anual_0.42_0.42_0.28_0.0_0.0_0.0_0.0_0.0_0.0_0.0_0.0_0.0_carga_baixa Bus1=59831717827377036BT.1.2 Phases=2
~ Conn=wye Model=1 Kv=0.22 Kw=1 pf=0.92

New Load.nome_0b8e105078f1fb8d316b0cac088860020d487f4f79a2153ebbfbbae9b0e17e85_curva_diaria_COM-Tipo1_curva_anual_0.03_0.02_0.03_0.03_0.03_0.03_0.03_0.04_0.04_0.06_0.04_0.03_carga_baixa Bus1=59863757827449682BT.1.4 Phases=1
~ Conn=wye Model=1 Kv=0.127 Kw=1 pf=0.92

New Load.nome_0b9adf3ba44c13026d2d3910ffbfff1df5d7710b74451ce3d619a30446efae03_curva_diaria_RES-Tipo4_curva_anual_0.0_0.0_0.0_0.0_0.0_0.0_0.0_0.0_0.0_0.0_0.0_0.0_carga_baixa Bus1=4290529IS.1.2.3 Phases=3
~ Conn=wye Model=1 Kv=0.22 Kw=1 pf=0.92

New Load.nome_0ba59740fe659ae34c04cda9236e6b12b622932608717a3d147ce0efc779a452_curva_diaria_RES-Tipo1_curva_anual_0.9_1.06_1.49_0.93_0.99_0.89_0.11_0.67_2.29_2.44_3.97_3.19_carga_baixa Bus1=59851421827351120BT.2.3 Phases=2
~ Conn=wye Model=1 Kv=0.22 Kw=1 pf=0.92

New Load.nome_0bd014b72e5212235c9d153c1200d64171a227ff3a3331e44c774c1ddb8e269e_curva_diaria_RES-Tipo9_curva_anual_0.52_0.51_0.39_0.0_0.0_0.0_0.0_0.0_0.64_0.8_0.42_0.12_carga_baixa Bus1=59847218827471611BT.1.2 Phases=2
~ Conn=wye Model=1 Kv=0.22 Kw=1 pf=0.92

New Load.nome_0c57fdbdd2405ec65ca60afb560871246228cfeb8b733c1ba12affa186ede11b_curva_diaria_RES-Tipo6_curva_anual_0.24_0.41_0.32_0.25_0.24_0.17_0.24_0.4_0.38_0.72_0.54_0.48_carga_baixa Bus1=59871015827296192BT.1.3 Phases=2
~ Conn=wye Model=1 Kv=0.22 Kw=1 pf=0.92

New Load.nome_0c72bc6b287af7a613d224cf2f7687a979c097bb617410743fe361e02106c2d1_curva_diaria_RES-Tipo4_curva_anual_0.74_0.58_0.7_0.64_0.66_0.5_0.51_0.91_1.18_1.98_1.36_1.22_carga_baixa Bus1=59883194827321453BT.1.2 Phases=2
~ Conn=wye Model=1 Kv=0.22 Kw=1 pf=0.92

New Load.nome_0c78f5e236720df8db468a2fd1b145e5fd8053f33a913655d0f951302569e20d_curva_diaria_RES-Tipo1_curva_anual_1.22_1.61_2.3_1.16_1.14_1.09_0.15_1.0_2.77_2.31_3.68_3.33_carga_baixa Bus1=59873016827316272BT.1.2 Phases=2
~ Conn=wye Model=1 Kv=0.22 Kw=1 pf=0.92

New Load.nome_0c84f0d9f629a906a2c40246a0335c2da368da5a81eafeefb2a58718ccca39cf_curva_diaria_RES-Tipo6_curva_anual_0.79_0.85_1.07_1.02_1.08_0.78_0.98_2.05_2.66_3.68_2.22_1.83_carga_baixa Bus1=59828348827467807BT.1.2 Phases=2
~ Conn=wye Model=1 Kv=0.22 Kw=1 pf=0.92

New Load.nome_0c8eb5b7ce0f42e9e2aed32535aa83c18907de0aba2fc60e76d477eecfdb8191_curva_diaria_RES-Tipo10_curva_anual_0.58_0.31_0.0_0.0_0.0_0.09_0.0_0.0_0.0_0.0_0.0_0.92_carga_baixa Bus1=59860718827451397BT.1.3 Phases=2
~ Conn=wye Model=1 Kv=0.22 Kw=1 pf=0.92

New Load.nome_0c9663d06fedaa6964d32fc968bd9cfd801dfcce44090fffe73a152a2bc717da_curva_diaria_RES-Tipo6_curva_anual_0.22_0.19_0.11_0.0_0.0_0.0_0.0_0.0_0.0_0.0_0.0_0.0_carga_baixa Bus1=59856978827454043BT.1.2 Phases=2
~ Conn=wye Model=1 Kv=0.22 Kw=1 pf=0.92

New Load.nome_0c96ddbec2d22ba84531004d1cb16be4b9821d561ef1e4100cf1afeee6fcb164_curva_diaria_RES-Tipo1_curva_anual_0.04_0.03_0.04_0.05_0.04_0.03_0.03_0.05_0.05_0.07_0.05_0.05_carga_baixa Bus1=59889320827512174BT.1.3 Phases=2
~ Conn=wye Model=1 Kv=0.22 Kw=1 pf=0.92

New Load.nome_0c9ab68f58e2c2ed0c2546f98831e487ad51fabaf6ee58cd6c919754e0545dff_curva_diaria_RES-Tipo6_curva_anual_0.23_0.32_0.61_0.54_0.54_0.41_0.5_0.93_1.09_1.77_1.08_0.9_carga_baixa Bus1=59856950827453808BT.1.2 Phases=2
~ Conn=wye Model=1 Kv=0.22 Kw=1 pf=0.92

...